-------------------------------------------------------
          Amber 22 PMEMD                              2022
          -------------------------------------------------------

  [-O]verwriting output

File Assignments:

 Here is the input file:

Production (20 ns)
 &cntrl
  ntx = 5,
  irest = 1,

  ntpr = 25000,
  ntwr = 250000,
  ntwx = 25000,

  nstlim = 5000000,
  t = 1000.0,
  dt = 0.004,

  ntt = 3,
  gamma_ln = 1.0,

  ntp = 1,

  ntc = 2,

  ntf = 2,
  ntb = 2,
  cut = 9.0,
 /

Note: ig = -1. Setting random seed to    70038 based on wallclock time in
      microseconds.

--------------------------------------------------------------------------------
   1.  RESOURCE   USE:
--------------------------------------------------------------------------------

 getting box info from netcdf restart file
 NATOM  =   64528 NTYPES =      24 NBONH =   46847 MBONA  =   17692
 NTHETH =    6503 MTHETA =    4120 NPHIH =   13375 MPHIA  =   12750
 NHPARM =       0 NPARM  =       0 NNB   =  134816 NRES   =   15102
 NBONA  =   17692 NTHETA =    4120 NPHIA =   12750 NUMBND =      82
 NUMANG =     183 NPTRA  =     241 NATYP =      46 NPHB   =       1
 IFBOX  =       1 NMXRS  =      28 IFCAP =       0 NEXTRA =   14659
 NCOPY  =       0

     BOX TYPE: RECTILINEAR

--------------------------------------------------------------------------------
   2.  CONTROL  DATA  FOR  THE  RUN
--------------------------------------------------------------------------------

default_name

General flags:
     imin    =       0, nmropt  =       0

Nature and format of input:
     ntx     =       5, irest   =       1, ntrx    =       1

Nature and format of output:
     ntxo    =       2, ntpr    =   25000, ntrx    =       1, ntwr    =  250000
     iwrap   =       0, ntwx    =   25000, ntwv    =       0, ntwe    =       0
     ioutfm  =       1, ntwprt  =       0, idecomp =       0, rbornstat=      0

Potential function:
     ntf     =       2, ntb     =       2, igb     =       0, nsnb    =      25
     ipol    =       0, gbsa    =       0, iesp    =       0
     dielc   =   1.00000, cut     =   9.00000, intdiel =   1.00000

Frozen or restrained atoms:
     ibelly  =       0, ntr     =       0

Molecular dynamics:
     nstlim  =   5000000, nscm    =      1000, nrespa  =         1
     t       =1000.00000, dt      =   0.00400, vlimit  =  -1.00000

Langevin dynamics temperature regulation:
     ig      =   70038
     temp0   = 300.00000, tempi   =   0.00000, gamma_ln=   1.00000

Pressure regulation:
     ntp     =       1
     pres0   =   1.00000, comp    =  44.60000, taup    =   1.00000

SHAKE:
     ntc     =       2, jfastw  =       0
     tol     =   0.00001

Extra-points options:
     frameon =       1, chngmask=       1

Ewald parameters:
     verbose =       0, ew_type =       0, nbflag  =       1, use_pme =       1
     vdwmeth =       1, eedmeth =       1, netfrc  =       1
     Box X =   91.811   Box Y =   71.003   Box Z =   75.834
     Alpha =   90.000   Beta  =   90.000   Gamma =   90.000
     NFFT1 =   96       NFFT2 =   72       NFFT3 =   80
     Cutoff=    9.000   Tol   =0.100E-04
     Ewald Coefficient =  0.30768
     Interpolation order =    4

--------------------------------------------------------------------------------
   3.  ATOMIC COORDINATES AND VELOCITIES
--------------------------------------------------------------------------------

default_name
 begin time read from input coords =   920.000 ps

 Number of triangulated 3-point waters found:    14659

     Sum of charges from parm topology file =   0.00008021
     Forcing neutrality...

--------------------------------------------------------------------------------
   4.  RESULTS
 NSTEP =    25000   TIME(PS) =    1020.000  TEMP(K) =   302.09  PRESS =   162.8
 Etot   =   -163669.3255  EKtot   =     30843.5645  EPtot      =   -194512.8899
 BOND   =      1351.5067  ANGLE   =      3168.2108  DIHED      =      1903.9531
 UB     =         0.0000  IMP     =         0.0000  CMAP       =       311.0694
 1-4 NB =      1393.4892  1-4 EEL =     15687.4768  VDWAALS    =     21666.9998
 EELEC  =   -239995.5957  EHBOND  =         0.0000  RESTRAINT  =         0.0000
 EKCMT  =     13505.4123  VIRIAL  =     11765.2155  VOLUME     =    495151.8058
                                                    Density    =         1.0348
 ------------------------------------------------------------------------------

      A V E R A G E S   O V E R     200 S T E P S

 NSTEP =  5000000   TIME(PS) =   20920.000  TEMP(K) =   300.43  PRESS =    -3.0
 Etot   =   -163868.9964  EKtot   =     30674.6558  EPtot      =   -194543.6521
 BOND   =      1383.9969  ANGLE   =      3163.5401  DIHED      =      1929.8277
 UB     =         0.0000  IMP     =         0.0000  CMAP       =       316.1131
 1-4 NB =      1374.3532  1-4 EEL =     15712.2713  VDWAALS    =     21506.4424
 EELEC  =   -239930.1969  EHBOND  =         0.0000  RESTRAINT  =         0.0000
 EKCMT  =     13453.4583  VIRIAL  =     13485.6006  VOLUME     =    494114.8055
                                                    Density    =         1.0370
 ------------------------------------------------------------------------------

      R M S  F L U C T U A T I O N S

 NSTEP =  5000000   TIME(PS) =   20920.000  TEMP(K) =     1.25  PRESS =   124.7
 Etot   =       248.4474  EKtot   =       127.3265  EPtot      =       208.3512
 BOND   =        35.1480  ANGLE   =        43.5559  DIHED      =        21.9835
 UB     =         0.0000  IMP     =         0.0000  CMAP       =         9.8376
 1-4 NB =        16.7166  1-4 EEL =        45.6369  VDWAALS    =       212.5286
 EELEC  =       345.1207  EHBOND  =         0.0000  RESTRAINT  =         0.0000
 EKCMT  =        88.0348  VIRIAL  =      1346.6022  VOLUME     =       591.9437
                                                    Density    =         0.0012
 ------------------------------------------------------------------------------
