-------------------------------------------------------
          Amber 22 PMEMD                              2022
          -------------------------------------------------------

  [-O]verwriting output

File Assignments:

 Here is the input file:

Production (20 ns)
 &cntrl
  ntx = 5,
  irest = 1,

  ntpr = 25000,
  ntwr = 250000,
  ntwx = 25000,

  nstlim = 5000000,
  t = 61000.0,
  dt = 0.004,

  ntt = 3,
  gamma_ln = 1.0,

  ntp = 1,

  ntc = 2,

  ntf = 2,
  ntb = 2,
  cut = 9.0,
 /

Note: ig = -1. Setting random seed to   613120 based on wallclock time in
      microseconds.

--------------------------------------------------------------------------------
   1.  RESOURCE   USE:
--------------------------------------------------------------------------------

 getting box info from netcdf restart file
 NATOM  =   64528 NTYPES =      24 NBONH =   46847 MBONA  =   17692
 NTHETH =    6503 MTHETA =    4120 NPHIH =   13375 MPHIA  =   12750
 NHPARM =       0 NPARM  =       0 NNB   =  134816 NRES   =   15102
 NBONA  =   17692 NTHETA =    4120 NPHIA =   12750 NUMBND =      82
 NUMANG =     183 NPTRA  =     241 NATYP =      46 NPHB   =       1
 IFBOX  =       1 NMXRS  =      28 IFCAP =       0 NEXTRA =   14659
 NCOPY  =       0

     BOX TYPE: RECTILINEAR

--------------------------------------------------------------------------------
   2.  CONTROL  DATA  FOR  THE  RUN
--------------------------------------------------------------------------------

default_name

General flags:
     imin    =       0, nmropt  =       0

Nature and format of input:
     ntx     =       5, irest   =       1, ntrx    =       1

Nature and format of output:
     ntxo    =       2, ntpr    =   25000, ntrx    =       1, ntwr    =  250000
     iwrap   =       0, ntwx    =   25000, ntwv    =       0, ntwe    =       0
     ioutfm  =       1, ntwprt  =       0, idecomp =       0, rbornstat=      0

Potential function:
     ntf     =       2, ntb     =       2, igb     =       0, nsnb    =      25
     ipol    =       0, gbsa    =       0, iesp    =       0
     dielc   =   1.00000, cut     =   9.00000, intdiel =   1.00000

Frozen or restrained atoms:
     ibelly  =       0, ntr     =       0

Molecular dynamics:
     nstlim  =   5000000, nscm    =      1000, nrespa  =         1
     t       =**********, dt      =   0.00400, vlimit  =  -1.00000

Langevin dynamics temperature regulation:
     ig      =  613120
     temp0   = 300.00000, tempi   =   0.00000, gamma_ln=   1.00000

Pressure regulation:
     ntp     =       1
     pres0   =   1.00000, comp    =  44.60000, taup    =   1.00000

SHAKE:
     ntc     =       2, jfastw  =       0
     tol     =   0.00001

Extra-points options:
     frameon =       1, chngmask=       1

Ewald parameters:
     verbose =       0, ew_type =       0, nbflag  =       1, use_pme =       1
     vdwmeth =       1, eedmeth =       1, netfrc  =       1
     Box X =   91.824   Box Y =   71.013   Box Z =   75.845
     Alpha =   90.000   Beta  =   90.000   Gamma =   90.000
     NFFT1 =   96       NFFT2 =   72       NFFT3 =   80
     Cutoff=    9.000   Tol   =0.100E-04
     Ewald Coefficient =  0.30768
     Interpolation order =    4

--------------------------------------------------------------------------------
   3.  ATOMIC COORDINATES AND VELOCITIES
--------------------------------------------------------------------------------

default_name
 begin time read from input coords = 60920.000 ps

 Number of triangulated 3-point waters found:    14659

     Sum of charges from parm topology file =   0.00008021
     Forcing neutrality...

--------------------------------------------------------------------------------
   4.  RESULTS
 NSTEP =    25000   TIME(PS) =   61020.000  TEMP(K) =   301.17  PRESS =   -44.2
 Etot   =   -164479.4388  EKtot   =     30750.5039  EPtot      =   -195229.9427
 BOND   =      1346.9795  ANGLE   =      3141.5231  DIHED      =      1920.3169
 UB     =         0.0000  IMP     =         0.0000  CMAP       =       331.3997
 1-4 NB =      1349.6607  1-4 EEL =     15811.1966  VDWAALS    =     21662.5438
 EELEC  =   -240793.5631  EHBOND  =         0.0000  RESTRAINT  =         0.0000
 EKCMT  =     13495.6050  VIRIAL  =     13966.9540  VOLUME     =    493834.9646
                                                    Density    =         1.0375
 ------------------------------------------------------------------------------

      A V E R A G E S   O V E R     200 S T E P S

 NSTEP =  5000000   TIME(PS) =   80920.000  TEMP(K) =   300.23  PRESS =     9.2
 Etot   =   -163972.8918  EKtot   =     30654.4611  EPtot      =   -194627.3529
 BOND   =      1387.2803  ANGLE   =      3165.8332  DIHED      =      1924.6300
 UB     =         0.0000  IMP     =         0.0000  CMAP       =       321.0167
 1-4 NB =      1369.0289  1-4 EEL =     15741.4201  VDWAALS    =     21545.5411
 EELEC  =   -240082.1032  EHBOND  =         0.0000  RESTRAINT  =         0.0000
 EKCMT  =     13458.3386  VIRIAL  =     13360.2653  VOLUME     =    494090.0276
                                                    Density    =         1.0370
 ------------------------------------------------------------------------------

      R M S  F L U C T U A T I O N S

 NSTEP =  5000000   TIME(PS) =   80920.000  TEMP(K) =     1.35  PRESS =   125.6
 Etot   =       256.3509  EKtot   =       137.6988  EPtot      =       214.9389
 BOND   =        34.9887  ANGLE   =        47.8472  DIHED      =        22.6226
 UB     =         0.0000  IMP     =         0.0000  CMAP       =         8.7464
 1-4 NB =        16.4096  1-4 EEL =        46.4786  VDWAALS    =       204.3779
 EELEC  =       330.1367  EHBOND  =         0.0000  RESTRAINT  =         0.0000
 EKCMT  =        89.5854  VIRIAL  =      1353.0537  VOLUME     =       550.1124
                                                    Density    =         0.0012
 ------------------------------------------------------------------------------
