-------------------------------------------------------
          Amber 22 PMEMD                              2022
          -------------------------------------------------------

  [-O]verwriting output

File Assignments:

 Here is the input file:

Production (20 ns)
 &cntrl
  ntx = 5,
  irest = 1,

  ntpr = 25000,
  ntwr = 250000,
  ntwx = 25000,

  nstlim = 5000000,
  t = 81000.0,
  dt = 0.004,

  ntt = 3,
  gamma_ln = 1.0,

  ntp = 1,

  ntc = 2,

  ntf = 2,
  ntb = 2,
  cut = 9.0,
 /

Note: ig = -1. Setting random seed to   570364 based on wallclock time in
      microseconds.

--------------------------------------------------------------------------------
   1.  RESOURCE   USE:
--------------------------------------------------------------------------------

 getting box info from netcdf restart file
 NATOM  =   64528 NTYPES =      24 NBONH =   46847 MBONA  =   17692
 NTHETH =    6503 MTHETA =    4120 NPHIH =   13375 MPHIA  =   12750
 NHPARM =       0 NPARM  =       0 NNB   =  134816 NRES   =   15102
 NBONA  =   17692 NTHETA =    4120 NPHIA =   12750 NUMBND =      82
 NUMANG =     183 NPTRA  =     241 NATYP =      46 NPHB   =       1
 IFBOX  =       1 NMXRS  =      28 IFCAP =       0 NEXTRA =   14659
 NCOPY  =       0

     BOX TYPE: RECTILINEAR

--------------------------------------------------------------------------------
   2.  CONTROL  DATA  FOR  THE  RUN
--------------------------------------------------------------------------------

default_name

General flags:
     imin    =       0, nmropt  =       0

Nature and format of input:
     ntx     =       5, irest   =       1, ntrx    =       1

Nature and format of output:
     ntxo    =       2, ntpr    =   25000, ntrx    =       1, ntwr    =  250000
     iwrap   =       0, ntwx    =   25000, ntwv    =       0, ntwe    =       0
     ioutfm  =       1, ntwprt  =       0, idecomp =       0, rbornstat=      0

Potential function:
     ntf     =       2, ntb     =       2, igb     =       0, nsnb    =      25
     ipol    =       0, gbsa    =       0, iesp    =       0
     dielc   =   1.00000, cut     =   9.00000, intdiel =   1.00000

Frozen or restrained atoms:
     ibelly  =       0, ntr     =       0

Molecular dynamics:
     nstlim  =   5000000, nscm    =      1000, nrespa  =         1
     t       =**********, dt      =   0.00400, vlimit  =  -1.00000

Langevin dynamics temperature regulation:
     ig      =  570364
     temp0   = 300.00000, tempi   =   0.00000, gamma_ln=   1.00000

Pressure regulation:
     ntp     =       1
     pres0   =   1.00000, comp    =  44.60000, taup    =   1.00000

SHAKE:
     ntc     =       2, jfastw  =       0
     tol     =   0.00001

Extra-points options:
     frameon =       1, chngmask=       1

Ewald parameters:
     verbose =       0, ew_type =       0, nbflag  =       1, use_pme =       1
     vdwmeth =       1, eedmeth =       1, netfrc  =       1
     Box X =   91.806   Box Y =   70.999   Box Z =   75.830
     Alpha =   90.000   Beta  =   90.000   Gamma =   90.000
     NFFT1 =   96       NFFT2 =   72       NFFT3 =   80
     Cutoff=    9.000   Tol   =0.100E-04
     Ewald Coefficient =  0.30768
     Interpolation order =    4

--------------------------------------------------------------------------------
   3.  ATOMIC COORDINATES AND VELOCITIES
--------------------------------------------------------------------------------

default_name
 begin time read from input coords = 80920.000 ps

 Number of triangulated 3-point waters found:    14659

     Sum of charges from parm topology file =   0.00008021
     Forcing neutrality...

--------------------------------------------------------------------------------
   4.  RESULTS
 NSTEP =    25000   TIME(PS) =   81020.000  TEMP(K) =   300.10  PRESS =    32.8
 Etot   =   -164024.5348  EKtot   =     30640.7754  EPtot      =   -194665.3102
 BOND   =      1418.1947  ANGLE   =      3190.8726  DIHED      =      1934.2280
 UB     =         0.0000  IMP     =         0.0000  CMAP       =       328.7355
 1-4 NB =      1346.0715  1-4 EEL =     15699.6321  VDWAALS    =     21155.1321
 EELEC  =   -239738.1768  EHBOND  =         0.0000  RESTRAINT  =         0.0000
 EKCMT  =     13319.7740  VIRIAL  =     12970.4528  VOLUME     =    492987.5331
                                                    Density    =         1.0393
 ------------------------------------------------------------------------------

      A V E R A G E S   O V E R     200 S T E P S

 NSTEP =  5000000   TIME(PS) =  100920.000  TEMP(K) =   300.40  PRESS =     4.8
 Etot   =   -163931.5589  EKtot   =     30671.4168  EPtot      =   -194602.9757
 BOND   =      1385.8378  ANGLE   =      3171.7659  DIHED      =      1919.8571
 UB     =         0.0000  IMP     =         0.0000  CMAP       =       316.7958
 1-4 NB =      1369.2060  1-4 EEL =     15735.4154  VDWAALS    =     21524.2494
 EELEC  =   -240026.1032  EHBOND  =         0.0000  RESTRAINT  =         0.0000
 EKCMT  =     13461.5998  VIRIAL  =     13410.3489  VOLUME     =    494025.2194
                                                    Density    =         1.0371
 ------------------------------------------------------------------------------

      R M S  F L U C T U A T I O N S

 NSTEP =  5000000   TIME(PS) =  100920.000  TEMP(K) =     1.31  PRESS =   110.9
 Etot   =       246.5645  EKtot   =       133.7849  EPtot      =       203.1430
 BOND   =        33.8688  ANGLE   =        41.5758  DIHED      =        21.6828
 UB     =         0.0000  IMP     =         0.0000  CMAP       =         9.4637
 1-4 NB =        15.5822  1-4 EEL =        46.3593  VDWAALS    =       195.5557
 EELEC  =       325.0450  EHBOND  =         0.0000  RESTRAINT  =         0.0000
 EKCMT  =        96.0449  VIRIAL  =      1172.9218  VOLUME     =       613.6917
                                                    Density    =         0.0013
 ------------------------------------------------------------------------------
