-------------------------------------------------------
          Amber 22 PMEMD                              2022
          -------------------------------------------------------

  [-O]verwriting output

File Assignments:

 Here is the input file:

Production (20 ns)
 &cntrl
  ntx = 5,
  irest = 1,

  ntpr = 25000,
  ntwr = 250000,
  ntwx = 25000,

  nstlim = 5000000,
  t = 41000.0,
  dt = 0.004,

  ntt = 3,
  gamma_ln = 1.0,

  ntp = 1,

  ntc = 2,

  ntf = 2,
  ntb = 2,
  cut = 9.0,
 /

Note: ig = -1. Setting random seed to   410249 based on wallclock time in
      microseconds.

--------------------------------------------------------------------------------
   1.  RESOURCE   USE:
--------------------------------------------------------------------------------

 getting box info from netcdf restart file
 NATOM  =   64528 NTYPES =      24 NBONH =   46847 MBONA  =   17692
 NTHETH =    6503 MTHETA =    4120 NPHIH =   13375 MPHIA  =   12750
 NHPARM =       0 NPARM  =       0 NNB   =  134816 NRES   =   15102
 NBONA  =   17692 NTHETA =    4120 NPHIA =   12750 NUMBND =      82
 NUMANG =     183 NPTRA  =     241 NATYP =      46 NPHB   =       1
 IFBOX  =       1 NMXRS  =      28 IFCAP =       0 NEXTRA =   14659
 NCOPY  =       0

     BOX TYPE: RECTILINEAR

--------------------------------------------------------------------------------
   2.  CONTROL  DATA  FOR  THE  RUN
--------------------------------------------------------------------------------

default_name

General flags:
     imin    =       0, nmropt  =       0

Nature and format of input:
     ntx     =       5, irest   =       1, ntrx    =       1

Nature and format of output:
     ntxo    =       2, ntpr    =   25000, ntrx    =       1, ntwr    =  250000
     iwrap   =       0, ntwx    =   25000, ntwv    =       0, ntwe    =       0
     ioutfm  =       1, ntwprt  =       0, idecomp =       0, rbornstat=      0

Potential function:
     ntf     =       2, ntb     =       2, igb     =       0, nsnb    =      25
     ipol    =       0, gbsa    =       0, iesp    =       0
     dielc   =   1.00000, cut     =   9.00000, intdiel =   1.00000

Frozen or restrained atoms:
     ibelly  =       0, ntr     =       0

Molecular dynamics:
     nstlim  =   5000000, nscm    =      1000, nrespa  =         1
     t       =**********, dt      =   0.00400, vlimit  =  -1.00000

Langevin dynamics temperature regulation:
     ig      =  410249
     temp0   = 300.00000, tempi   =   0.00000, gamma_ln=   1.00000

Pressure regulation:
     ntp     =       1
     pres0   =   1.00000, comp    =  44.60000, taup    =   1.00000

SHAKE:
     ntc     =       2, jfastw  =       0
     tol     =   0.00001

Extra-points options:
     frameon =       1, chngmask=       1

Ewald parameters:
     verbose =       0, ew_type =       0, nbflag  =       1, use_pme =       1
     vdwmeth =       1, eedmeth =       1, netfrc  =       1
     Box X =   91.713   Box Y =   70.927   Box Z =   75.753
     Alpha =   90.000   Beta  =   90.000   Gamma =   90.000
     NFFT1 =   96       NFFT2 =   72       NFFT3 =   80
     Cutoff=    9.000   Tol   =0.100E-04
     Ewald Coefficient =  0.30768
     Interpolation order =    4

--------------------------------------------------------------------------------
   3.  ATOMIC COORDINATES AND VELOCITIES
--------------------------------------------------------------------------------

default_name
 begin time read from input coords = 40920.000 ps

 Number of triangulated 3-point waters found:    14659

     Sum of charges from parm topology file =   0.00008021
     Forcing neutrality...

--------------------------------------------------------------------------------
   4.  RESULTS
 NSTEP =    25000   TIME(PS) =   41020.000  TEMP(K) =   300.38  PRESS =   120.1
 Etot   =   -163648.4984  EKtot   =     30668.8652  EPtot      =   -194317.3636
 BOND   =      1419.7579  ANGLE   =      3155.4261  DIHED      =      1910.8111
 UB     =         0.0000  IMP     =         0.0000  CMAP       =       305.6458
 1-4 NB =      1391.1681  1-4 EEL =     15673.0760  VDWAALS    =     21847.2110
 EELEC  =   -240020.4596  EHBOND  =         0.0000  RESTRAINT  =         0.0000
 EKCMT  =     13484.2452  VIRIAL  =     12202.8558  VOLUME     =    494081.0215
                                                    Density    =         1.0370
 ------------------------------------------------------------------------------

      A V E R A G E S   O V E R     200 S T E P S

 NSTEP =  5000000   TIME(PS) =   60920.000  TEMP(K) =   300.39  PRESS =   -10.6
 Etot   =   -163946.5239  EKtot   =     30670.6626  EPtot      =   -194617.1865
 BOND   =      1391.4160  ANGLE   =      3172.6383  DIHED      =      1924.5654
 UB     =         0.0000  IMP     =         0.0000  CMAP       =       320.2385
 1-4 NB =      1370.0300  1-4 EEL =     15737.0933  VDWAALS    =     21521.3518
 EELEC  =   -240054.5197  EHBOND  =         0.0000  RESTRAINT  =         0.0000
 EKCMT  =     13460.6934  VIRIAL  =     13574.0199  VOLUME     =    494141.8798
                                                    Density    =         1.0369
 ------------------------------------------------------------------------------

      R M S  F L U C T U A T I O N S

 NSTEP =  5000000   TIME(PS) =   60920.000  TEMP(K) =     1.31  PRESS =   110.9
 Etot   =       240.7150  EKtot   =       134.1101  EPtot      =       189.5583
 BOND   =        37.4958  ANGLE   =        46.9530  DIHED      =        21.3407
 UB     =         0.0000  IMP     =         0.0000  CMAP       =         8.9763
 1-4 NB =        15.2941  1-4 EEL =        47.0158  VDWAALS    =       194.2871
 EELEC  =       305.1775  EHBOND  =         0.0000  RESTRAINT  =         0.0000
 EKCMT  =        96.3288  VIRIAL  =      1196.2259  VOLUME     =       601.7660
                                                    Density    =         0.0013
 ------------------------------------------------------------------------------
