-------------------------------------------------------
          Amber 22 PMEMD                              2022
          -------------------------------------------------------

  [-O]verwriting output

File Assignments:

 Here is the input file:

Production (20 ns)
 &cntrl
  ntx = 5,
  irest = 1,

  ntpr = 25000,
  ntwr = 250000,
  ntwx = 25000,

  nstlim = 5000000,
  t = 21000.0,
  dt = 0.004,

  ntt = 3,
  gamma_ln = 1.0,

  ntp = 1,

  ntc = 2,

  ntf = 2,
  ntb = 2,
  cut = 9.0,
 /

Note: ig = -1. Setting random seed to   761443 based on wallclock time in
      microseconds.

--------------------------------------------------------------------------------
   1.  RESOURCE   USE:
--------------------------------------------------------------------------------

 getting box info from netcdf restart file
 NATOM  =   64528 NTYPES =      24 NBONH =   46847 MBONA  =   17692
 NTHETH =    6503 MTHETA =    4120 NPHIH =   13375 MPHIA  =   12750
 NHPARM =       0 NPARM  =       0 NNB   =  134816 NRES   =   15102
 NBONA  =   17692 NTHETA =    4120 NPHIA =   12750 NUMBND =      82
 NUMANG =     183 NPTRA  =     241 NATYP =      46 NPHB   =       1
 IFBOX  =       1 NMXRS  =      28 IFCAP =       0 NEXTRA =   14659
 NCOPY  =       0

     BOX TYPE: RECTILINEAR

--------------------------------------------------------------------------------
   2.  CONTROL  DATA  FOR  THE  RUN
--------------------------------------------------------------------------------

default_name

General flags:
     imin    =       0, nmropt  =       0

Nature and format of input:
     ntx     =       5, irest   =       1, ntrx    =       1

Nature and format of output:
     ntxo    =       2, ntpr    =   25000, ntrx    =       1, ntwr    =  250000
     iwrap   =       0, ntwx    =   25000, ntwv    =       0, ntwe    =       0
     ioutfm  =       1, ntwprt  =       0, idecomp =       0, rbornstat=      0

Potential function:
     ntf     =       2, ntb     =       2, igb     =       0, nsnb    =      25
     ipol    =       0, gbsa    =       0, iesp    =       0
     dielc   =   1.00000, cut     =   9.00000, intdiel =   1.00000

Frozen or restrained atoms:
     ibelly  =       0, ntr     =       0

Molecular dynamics:
     nstlim  =   5000000, nscm    =      1000, nrespa  =         1
     t       =**********, dt      =   0.00400, vlimit  =  -1.00000

Langevin dynamics temperature regulation:
     ig      =  761443
     temp0   = 300.00000, tempi   =   0.00000, gamma_ln=   1.00000

Pressure regulation:
     ntp     =       1
     pres0   =   1.00000, comp    =  44.60000, taup    =   1.00000

SHAKE:
     ntc     =       2, jfastw  =       0
     tol     =   0.00001

Extra-points options:
     frameon =       1, chngmask=       1

Ewald parameters:
     verbose =       0, ew_type =       0, nbflag  =       1, use_pme =       1
     vdwmeth =       1, eedmeth =       1, netfrc  =       1
     Box X =   91.785   Box Y =   70.983   Box Z =   75.813
     Alpha =   90.000   Beta  =   90.000   Gamma =   90.000
     NFFT1 =   96       NFFT2 =   72       NFFT3 =   80
     Cutoff=    9.000   Tol   =0.100E-04
     Ewald Coefficient =  0.30768
     Interpolation order =    4

--------------------------------------------------------------------------------
   3.  ATOMIC COORDINATES AND VELOCITIES
--------------------------------------------------------------------------------

default_name
 begin time read from input coords = 20920.000 ps

 Number of triangulated 3-point waters found:    14659

     Sum of charges from parm topology file =   0.00008021
     Forcing neutrality...

--------------------------------------------------------------------------------
   4.  RESULTS
 NSTEP =    25000   TIME(PS) =   21020.000  TEMP(K) =   300.50  PRESS =    41.9
 Etot   =   -164146.3495  EKtot   =     30682.0625  EPtot      =   -194828.4120
 BOND   =      1365.8299  ANGLE   =      3184.3124  DIHED      =      1955.0809
 UB     =         0.0000  IMP     =         0.0000  CMAP       =       304.5362
 1-4 NB =      1401.4240  1-4 EEL =     15758.2862  VDWAALS    =     21552.2520
 EELEC  =   -240350.1336  EHBOND  =         0.0000  RESTRAINT  =         0.0000
 EKCMT  =     13374.3258  VIRIAL  =     12926.6665  VOLUME     =    494264.1429
                                                    Density    =         1.0366
 ------------------------------------------------------------------------------

      A V E R A G E S   O V E R     200 S T E P S

 NSTEP =  5000000   TIME(PS) =   40920.000  TEMP(K) =   300.37  PRESS =     5.3
 Etot   =   -163904.6225  EKtot   =     30668.6141  EPtot      =   -194573.2367
 BOND   =      1388.0924  ANGLE   =      3171.4172  DIHED      =      1936.9217
 UB     =         0.0000  IMP     =         0.0000  CMAP       =       317.9446
 1-4 NB =      1369.5155  1-4 EEL =     15744.8838  VDWAALS    =     21542.7511
 EELEC  =   -240044.7629  EHBOND  =         0.0000  RESTRAINT  =         0.0000
 EKCMT  =     13458.6944  VIRIAL  =     13401.7895  VOLUME     =    494097.3027
                                                    Density    =         1.0370
 ------------------------------------------------------------------------------

      R M S  F L U C T U A T I O N S

 NSTEP =  5000000   TIME(PS) =   40920.000  TEMP(K) =     1.41  PRESS =   126.5
 Etot   =       239.6368  EKtot   =       143.7495  EPtot      =       194.9449
 BOND   =        31.6610  ANGLE   =        42.2323  DIHED      =        22.0256
 UB     =         0.0000  IMP     =         0.0000  CMAP       =         9.0668
 1-4 NB =        16.5916  1-4 EEL =        49.5076  VDWAALS    =       200.0365
 EELEC  =       317.2485  EHBOND  =         0.0000  RESTRAINT  =         0.0000
 EKCMT  =        96.7197  VIRIAL  =      1360.5015  VOLUME     =       592.6652
                                                    Density    =         0.0012
 ------------------------------------------------------------------------------
